40

 Si    4.118   4.481 -12.830  
 Si    0.121   3.053  -9.489  
 Si    3.423   1.626  -6.147  
 Si    6.726   0.198  -2.806  
  O    3.980   2.880 -12.662  
  O   -0.018   1.453  -9.320  
  O    3.285   0.025  -5.979  
  O    4.936   3.222  -2.638  
  O    5.654   4.910 -12.703  
  O    1.656   3.483  -9.362  
  O    4.959   2.055  -6.020  
  O    0.961   0.628  -2.679  
  O   -0.396   3.385 -10.982  
  O    2.906   1.958  -7.641  
  O    6.209   0.530  -4.300  
  O    2.211  -0.897  -0.959  
  O    4.828   0.576 -11.756  
  O   -0.821   3.772  -8.414  
  O    2.481   2.345  -5.073  
  O    5.784   0.917  -1.732  
 Si    3.707   1.727 -11.588  
 Si    5.358   4.923  -8.246  
 Si    1.360   3.496  -4.905  
 Si    4.663   2.068  -1.564  
 Si   -0.198   4.393 -12.209  
 Si    3.105   2.966  -8.867  
 Si    6.407   1.538  -5.526  
 Si    2.410   0.110  -2.185  
  O    3.896   2.311 -10.094  
  O    5.547   5.508  -6.753  
  O    1.550   4.080  -3.411  
  O    4.852   2.653  -0.070  
  O    2.246   1.087 -11.715  
  O    3.898   4.283  -8.373  
  O   -0.100   2.856  -5.032  
  O    3.203   1.428  -1.691  
  H    3.601   4.813 -14.324  
  H    2.728  -1.229   0.535  
  H    0.594   3.739 -13.435  
  H    4.061   3.307   1.156  
